Circuit: * C:\Warehouse\Embedded\STM32Cube_FW_F1\MyProjects\FreeRTOS_USB_F103\Li-ion Battery Charger-Discharger\Simulation\Li-ion_Charger_Circuit_Simulation.asc

Early termination of direct N-R iteration.
Direct Newton iteration failed to find .op point.  (Use ".option noopiter" to skip.)
Starting Gmin stepping
Gmin = 10
vernier = 0.5
vernier = 0.25
vernier = 0.125
vernier = 0.0625
Gmin = 8.61953
vernier = 0.03125
vernier = 0.015625
vernier = 0.0078125
vernier = 0.00390625
Gmin = 8.47038
vernier = 0.00195313
vernier = 0.000976563
vernier = 0.000488281
Gmin = 0
Gmin stepping failed

Starting source stepping with srcstepmethod=0
Source Step = 3.0303%
Source Step = 33.3333%
Source Step = 63.6364%
Source Step = 93.9394%
Source stepping succeeded in finding the operating point.


Date: Sat Jun 09 22:10:53 2018
Total elapsed time: 0.807 seconds.

tnom = 27
temp = 27
method = modified trap
totiter = 4408
traniter = 2705
tranpoints = 1233
accept = 1189
rejected = 44
matrix size = 88
fillins = 735
solver = Normal
Thread vector: 9.4/7.8[2] 3.1/3.6[1] 3.7/4.9[1] 1.1/3.2[1]  2592/500
Matrix Compiler1: 90.79 KB object code size  16.7/8.8/[6.1]
Matrix Compiler2: 19.53 KB object code size  4.4/2.6/[1.8]

